<?xml version="1.0" encoding="UTF-8"?>

<!-- generated on 2023-11-25 21:38:09 by Eclipse SUMO netconvert Version 1.19.0
<configuration xmlns:xsi="http://www.w3.org/2001/XMLSchema-instance" xsi:noNamespaceSchemaLocation="http://sumo.dlr.de/xsd/netconvertConfiguration.xsd">

    <input>
        <node-files value="cloud.nod.xml"/>
        <edge-files value="cloud.edg.xml"/>
        <connection-files value="cloud.con.xml"/>
        <type-files value="cloud.typ.xml"/>
    </input>

    <output>
        <output-file value="cloud.net.xml"/>
    </output>

    <junctions>
        <no-turnarounds value="true"/>
    </junctions>

</configuration>
-->

<net version="1.16" junctionCornerDetail="5" limitTurnSpeed="5.50" xmlns:xsi="http://www.w3.org/2001/XMLSchema-instance" xsi:noNamespaceSchemaLocation="http://sumo.dlr.de/xsd/net_file.xsd">

    <location netOffset="1000.00,-100.00" convBoundary="0.00,0.00,2000.00,0.00" origBoundary="-1000.00,100.00,1000.00,100.00" projParameter="!"/>

    <type id="a" priority="3" numLanes="4" speed="100.00"/>
    <type id="b" priority="3" numLanes="2" speed="13.89"/>
    <type id="c" priority="2" numLanes="3" speed="13.89"/>
    <type id="p" priority="3" numLanes="3" speed="13.89" allow="pedestrian"/>

    <edge id=":100_0" function="internal">
        <lane id=":100_0_0" index="0" speed="100.00" length="0.10" shape="1100.00,11.20 1100.00,11.20"/>
        <lane id=":100_0_1" index="1" speed="100.00" length="0.10" shape="1100.00,8.00 1100.00,8.00"/>
        <lane id=":100_0_2" index="2" speed="100.00" length="0.10" shape="1100.00,4.80 1100.00,4.80"/>
        <lane id=":100_0_3" index="3" speed="100.00" length="0.10" shape="1100.00,1.60 1100.00,1.60"/>
    </edge>
    <edge id=":100_4" function="internal">
        <lane id=":100_4_0" index="0" speed="100.00" length="0.10" shape="1100.00,-11.20 1100.00,-11.20"/>
        <lane id=":100_4_1" index="1" speed="100.00" length="0.10" shape="1100.00,-8.00 1100.00,-8.00"/>
        <lane id=":100_4_2" index="2" speed="100.00" length="0.10" shape="1100.00,-4.80 1100.00,-4.80"/>
        <lane id=":100_4_3" index="3" speed="100.00" length="0.10" shape="1100.00,-1.60 1100.00,-1.60"/>
    </edge>
    <edge id=":200_0" function="internal">
        <lane id=":200_0_0" index="0" speed="100.00" length="0.10" shape="1200.00,11.20 1200.00,11.20"/>
        <lane id=":200_0_1" index="1" speed="100.00" length="0.10" shape="1200.00,8.00 1200.00,8.00"/>
        <lane id=":200_0_2" index="2" speed="100.00" length="0.10" shape="1200.00,4.80 1200.00,4.80"/>
        <lane id=":200_0_3" index="3" speed="100.00" length="0.10" shape="1200.00,1.60 1200.00,1.60"/>
    </edge>
    <edge id=":200_4" function="internal">
        <lane id=":200_4_0" index="0" speed="100.00" length="0.10" shape="1200.00,-11.20 1200.00,-11.20"/>
        <lane id=":200_4_1" index="1" speed="100.00" length="0.10" shape="1200.00,-8.00 1200.00,-8.00"/>
        <lane id=":200_4_2" index="2" speed="100.00" length="0.10" shape="1200.00,-4.80 1200.00,-4.80"/>
        <lane id=":200_4_3" index="3" speed="100.00" length="0.10" shape="1200.00,-1.60 1200.00,-1.60"/>
    </edge>
    <edge id=":300_0" function="internal">
        <lane id=":300_0_0" index="0" speed="100.00" length="0.10" shape="1300.00,11.20 1300.00,11.20"/>
        <lane id=":300_0_1" index="1" speed="100.00" length="0.10" shape="1300.00,8.00 1300.00,8.00"/>
        <lane id=":300_0_2" index="2" speed="100.00" length="0.10" shape="1300.00,4.80 1300.00,4.80"/>
        <lane id=":300_0_3" index="3" speed="100.00" length="0.10" shape="1300.00,1.60 1300.00,1.60"/>
    </edge>
    <edge id=":300_4" function="internal">
        <lane id=":300_4_0" index="0" speed="100.00" length="0.10" shape="1300.00,-11.20 1300.00,-11.20"/>
        <lane id=":300_4_1" index="1" speed="100.00" length="0.10" shape="1300.00,-8.00 1300.00,-8.00"/>
        <lane id=":300_4_2" index="2" speed="100.00" length="0.10" shape="1300.00,-4.80 1300.00,-4.80"/>
        <lane id=":300_4_3" index="3" speed="100.00" length="0.10" shape="1300.00,-1.60 1300.00,-1.60"/>
    </edge>
    <edge id=":400_0" function="internal">
        <lane id=":400_0_0" index="0" speed="100.00" length="0.10" shape="1400.00,11.20 1400.00,11.20"/>
        <lane id=":400_0_1" index="1" speed="100.00" length="0.10" shape="1400.00,8.00 1400.00,8.00"/>
        <lane id=":400_0_2" index="2" speed="100.00" length="0.10" shape="1400.00,4.80 1400.00,4.80"/>
        <lane id=":400_0_3" index="3" speed="100.00" length="0.10" shape="1400.00,1.60 1400.00,1.60"/>
    </edge>
    <edge id=":400_4" function="internal">
        <lane id=":400_4_0" index="0" speed="100.00" length="0.10" shape="1400.00,-11.20 1400.00,-11.20"/>
        <lane id=":400_4_1" index="1" speed="100.00" length="0.10" shape="1400.00,-8.00 1400.00,-8.00"/>
        <lane id=":400_4_2" index="2" speed="100.00" length="0.10" shape="1400.00,-4.80 1400.00,-4.80"/>
        <lane id=":400_4_3" index="3" speed="100.00" length="0.10" shape="1400.00,-1.60 1400.00,-1.60"/>
    </edge>
    <edge id=":500_0" function="internal">
        <lane id=":500_0_0" index="0" speed="100.00" length="0.10" shape="1500.00,11.20 1500.00,11.20"/>
        <lane id=":500_0_1" index="1" speed="100.00" length="0.10" shape="1500.00,8.00 1500.00,8.00"/>
        <lane id=":500_0_2" index="2" speed="100.00" length="0.10" shape="1500.00,4.80 1500.00,4.80"/>
        <lane id=":500_0_3" index="3" speed="100.00" length="0.10" shape="1500.00,1.60 1500.00,1.60"/>
    </edge>
    <edge id=":500_4" function="internal">
        <lane id=":500_4_0" index="0" speed="100.00" length="0.10" shape="1500.00,-11.20 1500.00,-11.20"/>
        <lane id=":500_4_1" index="1" speed="100.00" length="0.10" shape="1500.00,-8.00 1500.00,-8.00"/>
        <lane id=":500_4_2" index="2" speed="100.00" length="0.10" shape="1500.00,-4.80 1500.00,-4.80"/>
        <lane id=":500_4_3" index="3" speed="100.00" length="0.10" shape="1500.00,-1.60 1500.00,-1.60"/>
    </edge>
    <edge id=":600_0" function="internal">
        <lane id=":600_0_0" index="0" speed="100.00" length="0.10" shape="1600.00,11.20 1600.00,11.20"/>
        <lane id=":600_0_1" index="1" speed="100.00" length="0.10" shape="1600.00,8.00 1600.00,8.00"/>
        <lane id=":600_0_2" index="2" speed="100.00" length="0.10" shape="1600.00,4.80 1600.00,4.80"/>
        <lane id=":600_0_3" index="3" speed="100.00" length="0.10" shape="1600.00,1.60 1600.00,1.60"/>
    </edge>
    <edge id=":600_4" function="internal">
        <lane id=":600_4_0" index="0" speed="100.00" length="0.10" shape="1600.00,-11.20 1600.00,-11.20"/>
        <lane id=":600_4_1" index="1" speed="100.00" length="0.10" shape="1600.00,-8.00 1600.00,-8.00"/>
        <lane id=":600_4_2" index="2" speed="100.00" length="0.10" shape="1600.00,-4.80 1600.00,-4.80"/>
        <lane id=":600_4_3" index="3" speed="100.00" length="0.10" shape="1600.00,-1.60 1600.00,-1.60"/>
    </edge>
    <edge id=":700_0" function="internal">
        <lane id=":700_0_0" index="0" speed="100.00" length="0.10" shape="1700.00,11.20 1700.00,11.20"/>
        <lane id=":700_0_1" index="1" speed="100.00" length="0.10" shape="1700.00,8.00 1700.00,8.00"/>
        <lane id=":700_0_2" index="2" speed="100.00" length="0.10" shape="1700.00,4.80 1700.00,4.80"/>
        <lane id=":700_0_3" index="3" speed="100.00" length="0.10" shape="1700.00,1.60 1700.00,1.60"/>
    </edge>
    <edge id=":700_4" function="internal">
        <lane id=":700_4_0" index="0" speed="100.00" length="0.10" shape="1700.00,-11.20 1700.00,-11.20"/>
        <lane id=":700_4_1" index="1" speed="100.00" length="0.10" shape="1700.00,-8.00 1700.00,-8.00"/>
        <lane id=":700_4_2" index="2" speed="100.00" length="0.10" shape="1700.00,-4.80 1700.00,-4.80"/>
        <lane id=":700_4_3" index="3" speed="100.00" length="0.10" shape="1700.00,-1.60 1700.00,-1.60"/>
    </edge>
    <edge id=":800_0" function="internal">
        <lane id=":800_0_0" index="0" speed="100.00" length="0.10" shape="1800.00,11.20 1800.00,11.20"/>
        <lane id=":800_0_1" index="1" speed="100.00" length="0.10" shape="1800.00,8.00 1800.00,8.00"/>
        <lane id=":800_0_2" index="2" speed="100.00" length="0.10" shape="1800.00,4.80 1800.00,4.80"/>
        <lane id=":800_0_3" index="3" speed="100.00" length="0.10" shape="1800.00,1.60 1800.00,1.60"/>
    </edge>
    <edge id=":800_4" function="internal">
        <lane id=":800_4_0" index="0" speed="100.00" length="0.10" shape="1800.00,-11.20 1800.00,-11.20"/>
        <lane id=":800_4_1" index="1" speed="100.00" length="0.10" shape="1800.00,-8.00 1800.00,-8.00"/>
        <lane id=":800_4_2" index="2" speed="100.00" length="0.10" shape="1800.00,-4.80 1800.00,-4.80"/>
        <lane id=":800_4_3" index="3" speed="100.00" length="0.10" shape="1800.00,-1.60 1800.00,-1.60"/>
    </edge>
    <edge id=":900_0" function="internal">
        <lane id=":900_0_0" index="0" speed="100.00" length="0.10" shape="1900.00,11.20 1900.00,11.20"/>
        <lane id=":900_0_1" index="1" speed="100.00" length="0.10" shape="1900.00,8.00 1900.00,8.00"/>
        <lane id=":900_0_2" index="2" speed="100.00" length="0.10" shape="1900.00,4.80 1900.00,4.80"/>
        <lane id=":900_0_3" index="3" speed="100.00" length="0.10" shape="1900.00,1.60 1900.00,1.60"/>
    </edge>
    <edge id=":900_4" function="internal">
        <lane id=":900_4_0" index="0" speed="100.00" length="0.10" shape="1900.00,-11.20 1900.00,-11.20"/>
        <lane id=":900_4_1" index="1" speed="100.00" length="0.10" shape="1900.00,-8.00 1900.00,-8.00"/>
        <lane id=":900_4_2" index="2" speed="100.00" length="0.10" shape="1900.00,-4.80 1900.00,-4.80"/>
        <lane id=":900_4_3" index="3" speed="100.00" length="0.10" shape="1900.00,-1.60 1900.00,-1.60"/>
    </edge>
    <edge id=":n100_0" function="internal">
        <lane id=":n100_0_0" index="0" speed="100.00" length="0.10" shape="900.00,11.20 900.00,11.20"/>
        <lane id=":n100_0_1" index="1" speed="100.00" length="0.10" shape="900.00,8.00 900.00,8.00"/>
        <lane id=":n100_0_2" index="2" speed="100.00" length="0.10" shape="900.00,4.80 900.00,4.80"/>
        <lane id=":n100_0_3" index="3" speed="100.00" length="0.10" shape="900.00,1.60 900.00,1.60"/>
    </edge>
    <edge id=":n100_4" function="internal">
        <lane id=":n100_4_0" index="0" speed="100.00" length="0.10" shape="900.00,-11.20 900.00,-11.20"/>
        <lane id=":n100_4_1" index="1" speed="100.00" length="0.10" shape="900.00,-8.00 900.00,-8.00"/>
        <lane id=":n100_4_2" index="2" speed="100.00" length="0.10" shape="900.00,-4.80 900.00,-4.80"/>
        <lane id=":n100_4_3" index="3" speed="100.00" length="0.10" shape="900.00,-1.60 900.00,-1.60"/>
    </edge>
    <edge id=":n200_0" function="internal">
        <lane id=":n200_0_0" index="0" speed="100.00" length="0.10" shape="800.00,11.20 800.00,11.20"/>
        <lane id=":n200_0_1" index="1" speed="100.00" length="0.10" shape="800.00,8.00 800.00,8.00"/>
        <lane id=":n200_0_2" index="2" speed="100.00" length="0.10" shape="800.00,4.80 800.00,4.80"/>
        <lane id=":n200_0_3" index="3" speed="100.00" length="0.10" shape="800.00,1.60 800.00,1.60"/>
    </edge>
    <edge id=":n200_4" function="internal">
        <lane id=":n200_4_0" index="0" speed="100.00" length="0.10" shape="800.00,-11.20 800.00,-11.20"/>
        <lane id=":n200_4_1" index="1" speed="100.00" length="0.10" shape="800.00,-8.00 800.00,-8.00"/>
        <lane id=":n200_4_2" index="2" speed="100.00" length="0.10" shape="800.00,-4.80 800.00,-4.80"/>
        <lane id=":n200_4_3" index="3" speed="100.00" length="0.10" shape="800.00,-1.60 800.00,-1.60"/>
    </edge>
    <edge id=":n300_0" function="internal">
        <lane id=":n300_0_0" index="0" speed="100.00" length="0.10" shape="700.00,11.20 700.00,11.20"/>
        <lane id=":n300_0_1" index="1" speed="100.00" length="0.10" shape="700.00,8.00 700.00,8.00"/>
        <lane id=":n300_0_2" index="2" speed="100.00" length="0.10" shape="700.00,4.80 700.00,4.80"/>
        <lane id=":n300_0_3" index="3" speed="100.00" length="0.10" shape="700.00,1.60 700.00,1.60"/>
    </edge>
    <edge id=":n300_4" function="internal">
        <lane id=":n300_4_0" index="0" speed="100.00" length="0.10" shape="700.00,-11.20 700.00,-11.20"/>
        <lane id=":n300_4_1" index="1" speed="100.00" length="0.10" shape="700.00,-8.00 700.00,-8.00"/>
        <lane id=":n300_4_2" index="2" speed="100.00" length="0.10" shape="700.00,-4.80 700.00,-4.80"/>
        <lane id=":n300_4_3" index="3" speed="100.00" length="0.10" shape="700.00,-1.60 700.00,-1.60"/>
    </edge>
    <edge id=":n400_0" function="internal">
        <lane id=":n400_0_0" index="0" speed="100.00" length="0.10" shape="600.00,11.20 600.00,11.20"/>
        <lane id=":n400_0_1" index="1" speed="100.00" length="0.10" shape="600.00,8.00 600.00,8.00"/>
        <lane id=":n400_0_2" index="2" speed="100.00" length="0.10" shape="600.00,4.80 600.00,4.80"/>
        <lane id=":n400_0_3" index="3" speed="100.00" length="0.10" shape="600.00,1.60 600.00,1.60"/>
    </edge>
    <edge id=":n400_4" function="internal">
        <lane id=":n400_4_0" index="0" speed="100.00" length="0.10" shape="600.00,-11.20 600.00,-11.20"/>
        <lane id=":n400_4_1" index="1" speed="100.00" length="0.10" shape="600.00,-8.00 600.00,-8.00"/>
        <lane id=":n400_4_2" index="2" speed="100.00" length="0.10" shape="600.00,-4.80 600.00,-4.80"/>
        <lane id=":n400_4_3" index="3" speed="100.00" length="0.10" shape="600.00,-1.60 600.00,-1.60"/>
    </edge>
    <edge id=":n500_0" function="internal">
        <lane id=":n500_0_0" index="0" speed="100.00" length="0.10" shape="500.00,11.20 500.00,11.20"/>
        <lane id=":n500_0_1" index="1" speed="100.00" length="0.10" shape="500.00,8.00 500.00,8.00"/>
        <lane id=":n500_0_2" index="2" speed="100.00" length="0.10" shape="500.00,4.80 500.00,4.80"/>
        <lane id=":n500_0_3" index="3" speed="100.00" length="0.10" shape="500.00,1.60 500.00,1.60"/>
    </edge>
    <edge id=":n500_4" function="internal">
        <lane id=":n500_4_0" index="0" speed="100.00" length="0.10" shape="500.00,-11.20 500.00,-11.20"/>
        <lane id=":n500_4_1" index="1" speed="100.00" length="0.10" shape="500.00,-8.00 500.00,-8.00"/>
        <lane id=":n500_4_2" index="2" speed="100.00" length="0.10" shape="500.00,-4.80 500.00,-4.80"/>
        <lane id=":n500_4_3" index="3" speed="100.00" length="0.10" shape="500.00,-1.60 500.00,-1.60"/>
    </edge>
    <edge id=":n600_0" function="internal">
        <lane id=":n600_0_0" index="0" speed="100.00" length="0.10" shape="400.00,11.20 400.00,11.20"/>
        <lane id=":n600_0_1" index="1" speed="100.00" length="0.10" shape="400.00,8.00 400.00,8.00"/>
        <lane id=":n600_0_2" index="2" speed="100.00" length="0.10" shape="400.00,4.80 400.00,4.80"/>
        <lane id=":n600_0_3" index="3" speed="100.00" length="0.10" shape="400.00,1.60 400.00,1.60"/>
    </edge>
    <edge id=":n600_4" function="internal">
        <lane id=":n600_4_0" index="0" speed="100.00" length="0.10" shape="400.00,-11.20 400.00,-11.20"/>
        <lane id=":n600_4_1" index="1" speed="100.00" length="0.10" shape="400.00,-8.00 400.00,-8.00"/>
        <lane id=":n600_4_2" index="2" speed="100.00" length="0.10" shape="400.00,-4.80 400.00,-4.80"/>
        <lane id=":n600_4_3" index="3" speed="100.00" length="0.10" shape="400.00,-1.60 400.00,-1.60"/>
    </edge>
    <edge id=":n700_0" function="internal">
        <lane id=":n700_0_0" index="0" speed="100.00" length="0.10" shape="300.00,11.20 300.00,11.20"/>
        <lane id=":n700_0_1" index="1" speed="100.00" length="0.10" shape="300.00,8.00 300.00,8.00"/>
        <lane id=":n700_0_2" index="2" speed="100.00" length="0.10" shape="300.00,4.80 300.00,4.80"/>
        <lane id=":n700_0_3" index="3" speed="100.00" length="0.10" shape="300.00,1.60 300.00,1.60"/>
    </edge>
    <edge id=":n700_4" function="internal">
        <lane id=":n700_4_0" index="0" speed="100.00" length="0.10" shape="300.00,-11.20 300.00,-11.20"/>
        <lane id=":n700_4_1" index="1" speed="100.00" length="0.10" shape="300.00,-8.00 300.00,-8.00"/>
        <lane id=":n700_4_2" index="2" speed="100.00" length="0.10" shape="300.00,-4.80 300.00,-4.80"/>
        <lane id=":n700_4_3" index="3" speed="100.00" length="0.10" shape="300.00,-1.60 300.00,-1.60"/>
    </edge>
    <edge id=":n800_0" function="internal">
        <lane id=":n800_0_0" index="0" speed="100.00" length="0.10" shape="200.00,11.20 200.00,11.20"/>
        <lane id=":n800_0_1" index="1" speed="100.00" length="0.10" shape="200.00,8.00 200.00,8.00"/>
        <lane id=":n800_0_2" index="2" speed="100.00" length="0.10" shape="200.00,4.80 200.00,4.80"/>
        <lane id=":n800_0_3" index="3" speed="100.00" length="0.10" shape="200.00,1.60 200.00,1.60"/>
    </edge>
    <edge id=":n800_4" function="internal">
        <lane id=":n800_4_0" index="0" speed="100.00" length="0.10" shape="200.00,-11.20 200.00,-11.20"/>
        <lane id=":n800_4_1" index="1" speed="100.00" length="0.10" shape="200.00,-8.00 200.00,-8.00"/>
        <lane id=":n800_4_2" index="2" speed="100.00" length="0.10" shape="200.00,-4.80 200.00,-4.80"/>
        <lane id=":n800_4_3" index="3" speed="100.00" length="0.10" shape="200.00,-1.60 200.00,-1.60"/>
    </edge>
    <edge id=":n900_0" function="internal">
        <lane id=":n900_0_0" index="0" speed="100.00" length="0.10" shape="100.00,11.20 100.00,11.20"/>
        <lane id=":n900_0_1" index="1" speed="100.00" length="0.10" shape="100.00,8.00 100.00,8.00"/>
        <lane id=":n900_0_2" index="2" speed="100.00" length="0.10" shape="100.00,4.80 100.00,4.80"/>
        <lane id=":n900_0_3" index="3" speed="100.00" length="0.10" shape="100.00,1.60 100.00,1.60"/>
    </edge>
    <edge id=":n900_4" function="internal">
        <lane id=":n900_4_0" index="0" speed="100.00" length="0.10" shape="100.00,-11.20 100.00,-11.20"/>
        <lane id=":n900_4_1" index="1" speed="100.00" length="0.10" shape="100.00,-8.00 100.00,-8.00"/>
        <lane id=":n900_4_2" index="2" speed="100.00" length="0.10" shape="100.00,-4.80 100.00,-4.80"/>
        <lane id=":n900_4_3" index="3" speed="100.00" length="0.10" shape="100.00,-1.60 100.00,-1.60"/>
    </edge>
    <edge id=":z_0" function="internal">
        <lane id=":z_0_0" index="0" speed="100.00" length="0.10" shape="1000.00,11.20 1000.00,11.20"/>
        <lane id=":z_0_1" index="1" speed="100.00" length="0.10" shape="1000.00,8.00 1000.00,8.00"/>
        <lane id=":z_0_2" index="2" speed="100.00" length="0.10" shape="1000.00,4.80 1000.00,4.80"/>
        <lane id=":z_0_3" index="3" speed="100.00" length="0.10" shape="1000.00,1.60 1000.00,1.60"/>
    </edge>
    <edge id=":z_4" function="internal">
        <lane id=":z_4_0" index="0" speed="100.00" length="0.10" shape="1000.00,-11.20 1000.00,-11.20"/>
        <lane id=":z_4_1" index="1" speed="100.00" length="0.10" shape="1000.00,-8.00 1000.00,-8.00"/>
        <lane id=":z_4_2" index="2" speed="100.00" length="0.10" shape="1000.00,-4.80 1000.00,-4.80"/>
        <lane id=":z_4_3" index="3" speed="100.00" length="0.10" shape="1000.00,-1.60 1000.00,-1.60"/>
    </edge>

    <edge id="e1000_1" from="900" to="1000" priority="-1">
        <lane id="e1000_1_0" index="0" speed="100.00" length="100.00" shape="1900.00,-11.20 2000.00,-11.20"/>
        <lane id="e1000_1_1" index="1" speed="100.00" length="100.00" shape="1900.00,-8.00 2000.00,-8.00"/>
        <lane id="e1000_1_2" index="2" speed="100.00" length="100.00" shape="1900.00,-4.80 2000.00,-4.80"/>
        <lane id="e1000_1_3" index="3" speed="100.00" length="100.00" shape="1900.00,-1.60 2000.00,-1.60"/>
    </edge>
    <edge id="e100_1" from="z" to="100" priority="-1">
        <lane id="e100_1_0" index="0" speed="100.00" length="100.00" shape="1000.00,-11.20 1100.00,-11.20"/>
        <lane id="e100_1_1" index="1" speed="100.00" length="100.00" shape="1000.00,-8.00 1100.00,-8.00"/>
        <lane id="e100_1_2" index="2" speed="100.00" length="100.00" shape="1000.00,-4.80 1100.00,-4.80"/>
        <lane id="e100_1_3" index="3" speed="100.00" length="100.00" shape="1000.00,-1.60 1100.00,-1.60"/>
    </edge>
    <edge id="e100_2" from="200" to="100" priority="-1">
        <lane id="e100_2_0" index="0" speed="100.00" length="100.00" shape="1200.00,11.20 1100.00,11.20"/>
        <lane id="e100_2_1" index="1" speed="100.00" length="100.00" shape="1200.00,8.00 1100.00,8.00"/>
        <lane id="e100_2_2" index="2" speed="100.00" length="100.00" shape="1200.00,4.80 1100.00,4.80"/>
        <lane id="e100_2_3" index="3" speed="100.00" length="100.00" shape="1200.00,1.60 1100.00,1.60"/>
    </edge>
    <edge id="e200_1" from="100" to="200" priority="-1">
        <lane id="e200_1_0" index="0" speed="100.00" length="100.00" shape="1100.00,-11.20 1200.00,-11.20"/>
        <lane id="e200_1_1" index="1" speed="100.00" length="100.00" shape="1100.00,-8.00 1200.00,-8.00"/>
        <lane id="e200_1_2" index="2" speed="100.00" length="100.00" shape="1100.00,-4.80 1200.00,-4.80"/>
        <lane id="e200_1_3" index="3" speed="100.00" length="100.00" shape="1100.00,-1.60 1200.00,-1.60"/>
    </edge>
    <edge id="e200_2" from="300" to="200" priority="-1">
        <lane id="e200_2_0" index="0" speed="100.00" length="100.00" shape="1300.00,11.20 1200.00,11.20"/>
        <lane id="e200_2_1" index="1" speed="100.00" length="100.00" shape="1300.00,8.00 1200.00,8.00"/>
        <lane id="e200_2_2" index="2" speed="100.00" length="100.00" shape="1300.00,4.80 1200.00,4.80"/>
        <lane id="e200_2_3" index="3" speed="100.00" length="100.00" shape="1300.00,1.60 1200.00,1.60"/>
    </edge>
    <edge id="e300_1" from="200" to="300" priority="-1">
        <lane id="e300_1_0" index="0" speed="100.00" length="100.00" shape="1200.00,-11.20 1300.00,-11.20"/>
        <lane id="e300_1_1" index="1" speed="100.00" length="100.00" shape="1200.00,-8.00 1300.00,-8.00"/>
        <lane id="e300_1_2" index="2" speed="100.00" length="100.00" shape="1200.00,-4.80 1300.00,-4.80"/>
        <lane id="e300_1_3" index="3" speed="100.00" length="100.00" shape="1200.00,-1.60 1300.00,-1.60"/>
    </edge>
    <edge id="e300_2" from="400" to="300" priority="-1">
        <lane id="e300_2_0" index="0" speed="100.00" length="100.00" shape="1400.00,11.20 1300.00,11.20"/>
        <lane id="e300_2_1" index="1" speed="100.00" length="100.00" shape="1400.00,8.00 1300.00,8.00"/>
        <lane id="e300_2_2" index="2" speed="100.00" length="100.00" shape="1400.00,4.80 1300.00,4.80"/>
        <lane id="e300_2_3" index="3" speed="100.00" length="100.00" shape="1400.00,1.60 1300.00,1.60"/>
    </edge>
    <edge id="e400_1" from="300" to="400" priority="-1">
        <lane id="e400_1_0" index="0" speed="100.00" length="100.00" shape="1300.00,-11.20 1400.00,-11.20"/>
        <lane id="e400_1_1" index="1" speed="100.00" length="100.00" shape="1300.00,-8.00 1400.00,-8.00"/>
        <lane id="e400_1_2" index="2" speed="100.00" length="100.00" shape="1300.00,-4.80 1400.00,-4.80"/>
        <lane id="e400_1_3" index="3" speed="100.00" length="100.00" shape="1300.00,-1.60 1400.00,-1.60"/>
    </edge>
    <edge id="e400_2" from="500" to="400" priority="-1">
        <lane id="e400_2_0" index="0" speed="100.00" length="100.00" shape="1500.00,11.20 1400.00,11.20"/>
        <lane id="e400_2_1" index="1" speed="100.00" length="100.00" shape="1500.00,8.00 1400.00,8.00"/>
        <lane id="e400_2_2" index="2" speed="100.00" length="100.00" shape="1500.00,4.80 1400.00,4.80"/>
        <lane id="e400_2_3" index="3" speed="100.00" length="100.00" shape="1500.00,1.60 1400.00,1.60"/>
    </edge>
    <edge id="e500_1" from="400" to="500" priority="-1">
        <lane id="e500_1_0" index="0" speed="100.00" length="100.00" shape="1400.00,-11.20 1500.00,-11.20"/>
        <lane id="e500_1_1" index="1" speed="100.00" length="100.00" shape="1400.00,-8.00 1500.00,-8.00"/>
        <lane id="e500_1_2" index="2" speed="100.00" length="100.00" shape="1400.00,-4.80 1500.00,-4.80"/>
        <lane id="e500_1_3" index="3" speed="100.00" length="100.00" shape="1400.00,-1.60 1500.00,-1.60"/>
    </edge>
    <edge id="e500_2" from="600" to="500" priority="-1">
        <lane id="e500_2_0" index="0" speed="100.00" length="100.00" shape="1600.00,11.20 1500.00,11.20"/>
        <lane id="e500_2_1" index="1" speed="100.00" length="100.00" shape="1600.00,8.00 1500.00,8.00"/>
        <lane id="e500_2_2" index="2" speed="100.00" length="100.00" shape="1600.00,4.80 1500.00,4.80"/>
        <lane id="e500_2_3" index="3" speed="100.00" length="100.00" shape="1600.00,1.60 1500.00,1.60"/>
    </edge>
    <edge id="e600_1" from="500" to="600" priority="-1">
        <lane id="e600_1_0" index="0" speed="100.00" length="100.00" shape="1500.00,-11.20 1600.00,-11.20"/>
        <lane id="e600_1_1" index="1" speed="100.00" length="100.00" shape="1500.00,-8.00 1600.00,-8.00"/>
        <lane id="e600_1_2" index="2" speed="100.00" length="100.00" shape="1500.00,-4.80 1600.00,-4.80"/>
        <lane id="e600_1_3" index="3" speed="100.00" length="100.00" shape="1500.00,-1.60 1600.00,-1.60"/>
    </edge>
    <edge id="e600_2" from="700" to="600" priority="-1">
        <lane id="e600_2_0" index="0" speed="100.00" length="100.00" shape="1700.00,11.20 1600.00,11.20"/>
        <lane id="e600_2_1" index="1" speed="100.00" length="100.00" shape="1700.00,8.00 1600.00,8.00"/>
        <lane id="e600_2_2" index="2" speed="100.00" length="100.00" shape="1700.00,4.80 1600.00,4.80"/>
        <lane id="e600_2_3" index="3" speed="100.00" length="100.00" shape="1700.00,1.60 1600.00,1.60"/>
    </edge>
    <edge id="e700_1" from="600" to="700" priority="-1">
        <lane id="e700_1_0" index="0" speed="100.00" length="100.00" shape="1600.00,-11.20 1700.00,-11.20"/>
        <lane id="e700_1_1" index="1" speed="100.00" length="100.00" shape="1600.00,-8.00 1700.00,-8.00"/>
        <lane id="e700_1_2" index="2" speed="100.00" length="100.00" shape="1600.00,-4.80 1700.00,-4.80"/>
        <lane id="e700_1_3" index="3" speed="100.00" length="100.00" shape="1600.00,-1.60 1700.00,-1.60"/>
    </edge>
    <edge id="e700_2" from="800" to="700" priority="-1">
        <lane id="e700_2_0" index="0" speed="100.00" length="100.00" shape="1800.00,11.20 1700.00,11.20"/>
        <lane id="e700_2_1" index="1" speed="100.00" length="100.00" shape="1800.00,8.00 1700.00,8.00"/>
        <lane id="e700_2_2" index="2" speed="100.00" length="100.00" shape="1800.00,4.80 1700.00,4.80"/>
        <lane id="e700_2_3" index="3" speed="100.00" length="100.00" shape="1800.00,1.60 1700.00,1.60"/>
    </edge>
    <edge id="e800_1" from="700" to="800" priority="-1">
        <lane id="e800_1_0" index="0" speed="100.00" length="100.00" shape="1700.00,-11.20 1800.00,-11.20"/>
        <lane id="e800_1_1" index="1" speed="100.00" length="100.00" shape="1700.00,-8.00 1800.00,-8.00"/>
        <lane id="e800_1_2" index="2" speed="100.00" length="100.00" shape="1700.00,-4.80 1800.00,-4.80"/>
        <lane id="e800_1_3" index="3" speed="100.00" length="100.00" shape="1700.00,-1.60 1800.00,-1.60"/>
    </edge>
    <edge id="e800_2" from="900" to="800" priority="-1">
        <lane id="e800_2_0" index="0" speed="100.00" length="100.00" shape="1900.00,11.20 1800.00,11.20"/>
        <lane id="e800_2_1" index="1" speed="100.00" length="100.00" shape="1900.00,8.00 1800.00,8.00"/>
        <lane id="e800_2_2" index="2" speed="100.00" length="100.00" shape="1900.00,4.80 1800.00,4.80"/>
        <lane id="e800_2_3" index="3" speed="100.00" length="100.00" shape="1900.00,1.60 1800.00,1.60"/>
    </edge>
    <edge id="e900_1" from="800" to="900" priority="-1">
        <lane id="e900_1_0" index="0" speed="100.00" length="100.00" shape="1800.00,-11.20 1900.00,-11.20"/>
        <lane id="e900_1_1" index="1" speed="100.00" length="100.00" shape="1800.00,-8.00 1900.00,-8.00"/>
        <lane id="e900_1_2" index="2" speed="100.00" length="100.00" shape="1800.00,-4.80 1900.00,-4.80"/>
        <lane id="e900_1_3" index="3" speed="100.00" length="100.00" shape="1800.00,-1.60 1900.00,-1.60"/>
    </edge>
    <edge id="e900_2" from="1000" to="900" priority="-1">
        <lane id="e900_2_0" index="0" speed="100.00" length="100.00" shape="2000.00,11.20 1900.00,11.20"/>
        <lane id="e900_2_1" index="1" speed="100.00" length="100.00" shape="2000.00,8.00 1900.00,8.00"/>
        <lane id="e900_2_2" index="2" speed="100.00" length="100.00" shape="2000.00,4.80 1900.00,4.80"/>
        <lane id="e900_2_3" index="3" speed="100.00" length="100.00" shape="2000.00,1.60 1900.00,1.60"/>
    </edge>
    <edge id="en1000_2" from="n900" to="n1000" priority="-1">
        <lane id="en1000_2_0" index="0" speed="100.00" length="100.00" shape="100.00,11.20 0.00,11.20"/>
        <lane id="en1000_2_1" index="1" speed="100.00" length="100.00" shape="100.00,8.00 0.00,8.00"/>
        <lane id="en1000_2_2" index="2" speed="100.00" length="100.00" shape="100.00,4.80 0.00,4.80"/>
        <lane id="en1000_2_3" index="3" speed="100.00" length="100.00" shape="100.00,1.60 0.00,1.60"/>
    </edge>
    <edge id="en100_1" from="n200" to="n100" priority="-1">
        <lane id="en100_1_0" index="0" speed="100.00" length="100.00" shape="800.00,-11.20 900.00,-11.20"/>
        <lane id="en100_1_1" index="1" speed="100.00" length="100.00" shape="800.00,-8.00 900.00,-8.00"/>
        <lane id="en100_1_2" index="2" speed="100.00" length="100.00" shape="800.00,-4.80 900.00,-4.80"/>
        <lane id="en100_1_3" index="3" speed="100.00" length="100.00" shape="800.00,-1.60 900.00,-1.60"/>
    </edge>
    <edge id="en100_2" from="z" to="n100" priority="-1">